Circuit: * C:\Users\cmurr\OneDrive\Desktop\ELCT 222 Signals and Systems\Projects\Project2\Project2.asc

.OP point found by inspection.
Ignoring empty pin current: Ix(u1:1)
Ignoring empty pin current: Ix(u1:2)
Ignoring empty pin current: Ix(u1:1)
Ignoring empty pin current: Ix(u1:2)

Date: Mon Nov 07 17:57:30 2022
Total elapsed time: 0.175 seconds.

tnom = 27
temp = 27
method = modified trap
totiter = 8120
traniter = 8120
tranpoints = 4061
accept = 4059
rejected = 2
matrix size = 4
fillins = 0
solver = Normal
Matrix Compiler1: 100 bytes object code size  0.0/0.0/[0.0]
Matrix Compiler2: off  [0.0]/0.2/0.0

